Version 4
SHEET 1 1052 680
WIRE -208 -48 -352 -48
WIRE -80 -48 -208 -48
WIRE -80 -16 -80 -48
WIRE -352 16 -352 -48
WIRE -208 16 -208 -48
WIRE -288 96 -304 96
WIRE -256 96 -288 96
WIRE -352 128 -352 112
WIRE -288 128 -288 96
WIRE -288 128 -352 128
WIRE -208 128 -208 112
WIRE -160 128 -208 128
WIRE -352 144 -352 128
WIRE -208 144 -208 128
WIRE -464 224 -528 224
WIRE -400 224 -464 224
WIRE -288 224 -304 224
WIRE -256 224 -288 224
WIRE -528 240 -528 224
WIRE -352 288 -352 240
WIRE -208 288 -208 240
WIRE -208 288 -352 288
WIRE -80 288 -80 64
WIRE -80 288 -208 288
WIRE -304 352 -304 224
WIRE -528 384 -528 320
WIRE -304 496 -304 432
FLAG -528 384 0
FLAG -208 64 Vdd
FLAG -352 64 Vdd
FLAG -352 192 0
FLAG -304 496 out
FLAG -208 192 0
FLAG -160 128 out
FLAG -464 224 Bias
FLAG -288 224 in
SYMBOL nmos4 -400 144 R0
WINDOW 0 66 22 Left 2
WINDOW 3 56 72 Invisible 2
SYMATTR InstName M8
SYMATTR Value2 l=0.6u w={Wn_bias}
SYMBOL pmos4 -304 16 M0
WINDOW 0 61 11 Left 2
WINDOW 3 56 72 Invisible 2
SYMATTR InstName M6
SYMATTR Value2 l=0.6u w={Wp_bias}
SYMBOL voltage -528 224 R0
WINDOW 123 0 0 Left 0
WINDOW 39 0 0 Left 0
WINDOW 3 -73 -42 VRight 2
SYMATTR Value {bias}
SYMATTR InstName V4
SYMBOL pmos4 -256 16 R0
WINDOW 0 57 17 Left 2
WINDOW 3 56 72 Invisible 2
SYMATTR InstName M3
SYMATTR Value2 l=0.6u w={Wp_out}
SYMBOL voltage -80 -32 R0
WINDOW 123 0 0 Left 0
WINDOW 39 0 0 Left 0
SYMATTR InstName V1
SYMATTR Value 5
SYMBOL nmos4 -256 144 R0
WINDOW 0 66 22 Left 2
WINDOW 3 56 72 Invisible 2
SYMATTR InstName M2
SYMATTR Value2 l=0.6u w={Wn_out}
SYMBOL voltage -304 336 R0
WINDOW 123 24 44 Left 2
WINDOW 39 0 0 Left 0
WINDOW 3 -70 13 VRight 2
SYMATTR Value2 AC 1
SYMATTR Value ""
SYMATTR InstName V2
TEXT -344 -136 Left 2 !.lib "cmosedu_models.txt"
TEXT -176 352 Left 2 !*.step param DC 2 5 0.5\n.param DC=2.5\n*.step param bias 1 5 0.5\n.param bias 2.5
TEXT -632 32 Left 2 !.ac dec 100 1 1G
TEXT -632 56 Left 2 !.op
