Version 4
SHEET 1 1260 1012
WIRE -208 -224 -352 -224
WIRE -80 -224 -208 -224
WIRE -208 -144 -208 -224
WIRE -80 -16 -80 -224
WIRE -352 16 -352 -224
WIRE -208 16 -208 -64
WIRE -288 96 -304 96
WIRE -256 96 -288 96
WIRE -352 128 -352 112
WIRE -288 128 -288 96
WIRE -288 128 -352 128
WIRE -208 128 -208 112
WIRE -160 128 -208 128
WIRE -352 144 -352 128
WIRE -208 144 -208 128
WIRE -464 224 -528 224
WIRE -400 224 -464 224
WIRE -272 224 -304 224
WIRE -256 224 -272 224
WIRE -528 240 -528 224
WIRE -352 288 -352 240
WIRE -208 288 -208 240
WIRE -208 288 -352 288
WIRE -80 288 -80 64
WIRE -80 288 -208 288
WIRE -80 320 -80 288
WIRE -304 352 -304 224
WIRE -528 384 -528 320
WIRE -304 496 -304 432
FLAG -528 384 0
FLAG -208 64 Vdd
FLAG -352 64 Vdd
FLAG -352 192 0
FLAG -208 192 0
FLAG -160 128 out
FLAG -464 224 bias
FLAG -272 224 in
FLAG -80 320 0
FLAG -304 496 0
SYMBOL nmos4 -400 144 R0
WINDOW 0 66 22 Left 2
WINDOW 3 56 72 Invisible 2
SYMATTR InstName M8
SYMATTR Value2 l=0.6u w=5u
SYMBOL pmos4 -304 16 M0
WINDOW 0 61 11 Left 2
WINDOW 3 56 72 Invisible 2
SYMATTR InstName M6
SYMATTR Value2 l=0.6u w=10u
SYMBOL voltage -528 224 R0
WINDOW 123 0 0 Left 0
WINDOW 39 0 0 Left 0
WINDOW 3 -44 7 VRight 2
SYMATTR Value {Vbias}
SYMATTR InstName V4
SYMBOL pmos4 -256 16 R0
WINDOW 0 57 17 Left 2
WINDOW 3 56 72 Invisible 2
SYMATTR InstName M3
SYMATTR Value2 l=0.6u w=10u
SYMBOL voltage -80 -32 R0
WINDOW 123 0 0 Left 0
WINDOW 39 0 0 Left 0
SYMATTR InstName Vdd
SYMATTR Value 5
SYMBOL nmos4 -256 144 R0
WINDOW 0 66 22 Left 2
WINDOW 3 56 72 Invisible 2
SYMATTR InstName M2
SYMATTR Value2 l=0.6u w=5u
SYMBOL voltage -304 336 R0
WINDOW 123 24 44 Left 2
WINDOW 39 0 0 Left 0
WINDOW 3 24 44 Left 2
SYMATTR Value2 AC 1
SYMATTR Value ""
SYMATTR InstName V2
SYMBOL voltage -208 -160 R0
WINDOW 123 0 0 Left 0
WINDOW 39 0 0 Left 0
SYMATTR InstName Vdd1
SYMATTR Value 0
TEXT 56 -8 Left 2 !.ac dec 1000 0.1GH 1GH
TEXT -456 104 Left 2 ;.op
TEXT 56 32 Left 2 !.meas ac Av_dB param 20*log10(mag(V(out)/V(in))) at=0.5G
TEXT 56 80 Left 2 !.meas ac at=0.5G UGB_Hz mag(V(out)/V(in))
TEXT 56 120 Left 2 !.meas ac PM_deg find (180 + phase(V(out)/V(in)))
TEXT 64 -48 Left 2 !.lib C5_models_SPICE.txt
TEXT 56 160 Left 2 !.param Vbias=1\n.step param Vbias 1 5 0.5
TEXT 56 224 Left 2 !.meas ac GAIN param (V(out)/V(in))\n.meas ac PO_IN param V(in)*I(V2)\n.meas ac PO_OUT param V(out)*I(Vdd1)\n.meas ac PO_EFF param PO_OUT/PO_IN
